/*--------------------------------*- C++ -*----------------------------------*\
| =========                 |                                                |
| \\      /  F ield         | cfMesh: A library for mesh generation          | 
|  \\    /   O peration     |                                                |
|   \\  /    A nd           | Author: Franjo Juretic                         | 
|    \\/     M anipulation  | E-mail: franjo.juretic@c-fields.com            |
\*---------------------------------------------------------------------------*/

FoamFile
{
    version   2.0;
    format    ascii;
    class     dictionary;
    location  "system";
    object    meshDict;
}

// * * * * * * * * * * * * * * * * * * * * * * * * * * * * * * * * * * * * * //

surfaceFile "combined.fms";

maxCellSize 0.003;

boundaryCellSize 0.001;

minCellSize 0.001;

/*localRefinement
{
    "tpmsSurface"
    {
        cellSize 0.001;
    } 
}*/

localRefinement
{
    "tpmsSurface"
    {
        cellSize 0.0005;
    } 
}

boundaryLayers
{
    nLayers 3;

    thicknessRatio 1.1;

    maxFirstLayerThickness 0.00025;

}
//    patchBoundaryLayers
//    {
//    }

/*renameBoundary
{
    defaultName		fixedWalls;
    defaultType		wall;

    newPatchNames
    {
        "inlet.*"
        {
            newName     inlet;
            type     patch;
        }

        "outlet.*"
        {
            newName     outlet;
            type     patch;
        }
    }
}*/
               
     
// ************************************************************************* //
